 /*--------------------------------*- C++ -*----------------------------------*\
| =========                 |                                                 |
| \\      /  F ield         | OpenFOAM: The Open Source CFD Toolbox           |
|  \\    /   O peration     | Version:  v2506                                 |
|   \\  /    A nd           | Website:  www.openfoam.com                      |
|    \\/     M anipulation  |                                                 |
\*---------------------------------------------------------------------------*/
FoamFile
{
    version     2.0;
    format      ascii;
    class       dictionary;
    object      trainingControlDict;
}
// * * * * * * * * * * * * * * * * * * * * * * * * * * * * * * * * * * * * * //

layerSizes         (4 24 24 24 24 24 2);

isContinue         yes;

dataInterval       1;

minCoords          (-1 -1.5 0);
maxCoords          (3.5 1.5 1);

trainingTimeList   (20 0.4 11);
predictingTimeList (20 0.1 51);

numEpochs          1000;
learningRate       0.0005;
schedulerRate      1.00;
schedulerStep      200;
outputInterval     10;

// ************************************************************************* //
